Program Version,EnergyPlus, Version 24.1.0-9d7789a3ac, YMD=2025.10.21 11:03,
   ** Warning ** No reporting elements have been requested. No simulation results produced.
   **   ~~~   ** ...Review requirements such as "Output:Table:SummaryReports", "Output:Table:Monthly", "Output:Variable", "Output:Meter" and others.
   ** Warning ** GetSurfaceData: World Coordinate System selected.  Any non-zero Building/Zone North Axes or non-zero Zone Origins are ignored.
   **   ~~~   ** These may be used in daylighting reference point coordinate calculations but not in normal geometry inputs.
   ** Warning ** GetHTSurfaceData: Surfaces with interface to Ground found but no "Ground Temperatures" were input.
   **   ~~~   ** Found first in surface=FLOOR
   **   ~~~   ** Defaults, constant throughout the year of (18.0) will be used.
   ** Warning ** GetVertices: Floor is upside down! Tilt angle=[0.0], should be near 180, Surface="FLOOR", in Zone="ROOM_ZONE".
   **   ~~~   ** Automatic fix is attempted.
   ** Warning ** GetVertices: Roof/Ceiling is upside down! Tilt angle=[180.0], should be near 0, Surface="ROOF", in Zone="ROOM_ZONE".
   **   ~~~   ** Automatic fix is attempted.
   ************* Testing Individual Branch Integrity
   ************* All Branches passed integrity testing
   ************* Testing Individual Supply Air Path Integrity
   ************* All Supply Air Paths passed integrity testing
   ************* Testing Individual Return Air Path Integrity
   ************* All Return Air Paths passed integrity testing
   ************* No node connection errors were found.
   ************* Beginning Simulation
   ** Warning ** Temperature out of range [-100. to 200.] (PsyPsatFnTemp)
   **   ~~~   **  Routine=PsyTwbFnTdbWPb, Environment=ANNUAL RUN, at Simulation time=03/27 20:30 - 20:45
   **   ~~~   **  Input Temperature=-686.15
   ** Severe  ** remove: The process cannot access the file because it is being used by another process.: "energy_workflow_output\eplusout.eso"
   *************
   ************* ===== Recurring Error Summary =====
   ************* The following recurring error messages occurred.
   *************
   *************  ** Warning ** Temperature out of range [-100. to 200.] (PsyPsatFnTemp)
   *************  **   ~~~   **   This error occurred 1 total times;
   *************  **   ~~~   **   during Warmup 0 times;
   *************  **   ~~~   **   during Sizing 0 times.
   *************  **   ~~~   **   Max=-686.153625 C  Min=-686.153625 C
   *************
   *************
   ************* ===== Final Error Summary =====
   ************* The following error categories occurred.  Consider correcting or noting.
   ************* No Reporting Elements requested
   ************* ..No Reporting elements have been requested. You will see no output values from your run.
   ************* ..Add Output:Variable, Output:Meter, Output:Table:SummaryReports, Output:Table:Monthly, Output:Table:TimeBins
   ************* ..objects to your input file to receive output values from the simulation.
   *************
   ************* EnergyPlus Warmup Error Summary. During Warmup: 0 Warning; 0 Severe Errors.
   ************* EnergyPlus Sizing Error Summary. During Sizing: 0 Warning; 0 Severe Errors.
   ************* EnergyPlus Terminated--Fatal Error Detected. 6 Warning; 1 Severe Errors; Elapsed Time=00hr 00min  1.10sec
